53
 energy: -110.314945727115 gnorm: 0.000339493525 xtb: 6.5.1 (fef0646)
C            1.45722794410511       -4.99818561760195       -1.11120932411253
O            0.92247110963825       -3.70132755932899       -1.26508104804783
C            1.74512545965491       -2.65885476915341       -1.10684543138316
C            3.11258243500884       -2.68013805144727       -0.81015949960797
C            3.67447703316223       -1.42168944994665       -0.69123418325412
C            5.01642773724983       -1.09110539904837       -0.29342962463688
C            5.89027409064210       -2.00885160287883        0.20829993190801
N            7.12396789007969       -1.60089826848560        0.62770849756735
C            8.12371551531747       -2.33054555121005        1.17959100758852
C            9.17134088340530       -1.48994369797991        1.46802595916271
C            8.79963627236804       -0.19370054111863        1.07799996345970
C            7.52473981018652       -0.27697351246842        0.55764980041901
C            6.64041280572327        0.73191607441316        0.01822576370540
O            6.88763911748539        1.91255053885910       -0.09870432219602
N            5.41166649271575        0.22683101207375       -0.38085074677712
S            2.53713655530656       -0.16007021298012       -1.01362689459989
C            1.23193080841581       -1.35742389714514       -1.22829943459930
N           -0.03199201247821       -1.04131133879725       -1.35584050307450
N           -0.36004429864944        0.17469934106923       -1.55149329287041
C           -1.64132170793202        0.57283105678453       -1.33234157024560
C           -2.10945086316460        1.72972952365506       -1.97682467051420
C           -3.31912253679390        2.28344227677965       -1.62827132097927
C           -4.10204530651189        1.74722116315581       -0.60260052143859
C           -5.36769523756646        2.39855189860190       -0.23643988568209
C           -5.36911288323794        3.75219639983640        0.07785431322908
C           -6.53790336993053        4.39315418412889        0.44816337617523
Cl          -6.51858823301490        6.06490030432270        0.84655830955284
C           -7.74462853646055        3.70176510146626        0.51124480677225
O           -8.88266988943886        4.32031556483782        0.88271181177219
C           -7.75652439482642        2.34090599095054        0.17016330796935
O           -8.95568852126416        1.70265500896315        0.22519700090589
C           -6.57995326212240        1.71021230421618       -0.20598484758258
Cl          -6.67086963540965        0.03150073815561       -0.67073973943487
C           -3.62666999941291        0.59641208521927        0.03848417874296
N           -4.31402622888660        0.03220978121311        1.17555403375212
O           -4.20305089970265       -1.16121000839924        1.35520442726082
O           -4.92238279052710        0.78745437183921        1.90348223596279
C           -2.43785922863967       -0.00241833672816       -0.33178743404257
H            2.24321352556427       -5.19393198705876       -1.84684922172090
H            0.62600707978504       -5.68009085106103       -1.27890910543490
H            1.85354987973526       -5.14834710336852       -0.10264937342251
H            3.67760388032493       -3.58305839955790       -0.67433990111953
H            5.65131631059545       -3.05150429879562        0.32012588752672
H            8.02416695623129       -3.38745702168256        1.33095696726066
H           10.10319360064448       -1.77593889699144        1.91329884847783
H            9.37898168585083        0.70267919618369        1.16172147318402
H            4.75410728568466        0.90257008775292       -0.75074211903624
H           -1.50455803906354        2.16741043351239       -2.75512184120675
H           -3.68246728679481        3.15753404130938       -2.14662409851749
H           -4.44298776442882        4.30298683185660        0.06431934455578
H           -9.59637965658077        3.66597480733718        0.88268120655567
H           -8.81441185715696        0.76670248081717        0.01703609866875
H           -2.09050772504143       -0.88233822608233        0.18942540334720
